Circuit: * C:\Users\ryanj\OneDrive - University of Cape Town\Third Year\First Semester\EEE3088F\HAT\EEE3088F_HAT\Simulation\Power Module\Voltage Regulation\Battery Polarity Protector.asc

WARNING: Node NC_02 is floating.

WARNING: Less than two connections to node NC_01.  This node is used by V1.
WARNING: Less than two connections to node NC_02.  This node is used by V1.
Direct Newton iteration for .op point succeeded.

Date: Thu Mar 10 18:29:20 2022
Total elapsed time: 0.165 seconds.

tnom = 27
temp = 27
method = modified trap
totiter = 577
traniter = 558
tranpoints = 280
accept = 280
rejected = 0
matrix size = 8
fillins = 0
solver = Normal
Matrix Compiler1:      20 opcodes  0.1/[0.1]/0.1
Matrix Compiler2: off  [0.0]/0.1/0.1

