Circuit: * C:\Users\ryanj\OneDrive - University of Cape Town\Third Year\First Semester\EEE3088F\HAT\EEE3088F_HAT\Simulation\Power Module\Voltage Regulation\Draft4.asc

Direct Newton iteration for .op point succeeded.

Date: Thu Mar 10 19:53:38 2022
Total elapsed time: 0.542 seconds.

tnom = 27
temp = 27
method = modified trap
totiter = 586
traniter = 572
tranpoints = 280
accept = 280
rejected = 0
matrix size = 14
fillins = 0
solver = Normal
Matrix Compiler1: 540 bytes object code size  0.3/0.2/[0.1]
Matrix Compiler2: 1.06 KB object code size  0.2/0.3/[0.2]

