Circuit: * C:\Users\ryanj\OneDrive - University of Cape Town\Third Year\First Semester\EEE3088F\HAT\EEE3088F_HAT\Simulation\Power Module\Voltage Regulation\Draft5.asc

Direct Newton iteration for .op point succeeded.

Date: Thu Mar 10 18:21:09 2022
Total elapsed time: 0.121 seconds.

tnom = 27
temp = 27
method = modified trap
totiter = 576
traniter = 558
tranpoints = 280
accept = 280
rejected = 0
matrix size = 5
fillins = 0
solver = Normal
Matrix Compiler1: 266 bytes object code size  0.1/0.1/[0.0]
Matrix Compiler2: 383 bytes object code size  0.1/0.1/[0.1]

